*SPEF "ieee 1481-1999"
*DESIGN "priority_encoder"
*DATE "13:57:43 Wednesday November 06, 2024"
*VENDOR "The OpenROAD Project"
*PROGRAM "OpenROAD"
*VERSION "b16bda7e82721d10566ff7e2b68f1ff0be9f9e38"
*DESIGN_FLOW "NAME_SCOPE LOCAL" "PIN_CAP NONE"
*DIVIDER /
*DELIMITER :
*BUS_DELIMITER []
*T_UNIT 1 NS
*C_UNIT 1 PF
*R_UNIT 1 OHM
*L_UNIT 1 HENRY

*NAME_MAP
*1 D[0]
*2 D[1]
*3 D[2]
*4 D[3]
*5 D[4]
*6 D[5]
*7 D[6]
*8 D[7]
*9 O[0]
*10 O[1]
*11 O[2]
*14 clk
*15 _00_
*16 _01_
*17 _02_
*18 _03_
*19 _04_
*20 _05_
*21 _06_
*22 _07_
*23 clknet_0_clk
*24 clknet_1_0__leaf_clk
*25 clknet_1_1__leaf_clk
*26 net1
*27 net10
*28 net2
*29 net3
*30 net4
*31 net5
*32 net6
*33 net7
*34 net8
*35 net9
*36 FILLER_0_0_11
*37 FILLER_0_0_23
*38 FILLER_0_0_27
*39 FILLER_0_0_29
*40 FILLER_0_0_3
*41 FILLER_0_0_41
*42 FILLER_0_0_47
*43 FILLER_0_0_55
*44 FILLER_0_0_57
*45 FILLER_0_0_69
*46 FILLER_0_1_15
*47 FILLER_0_1_27
*48 FILLER_0_1_3
*49 FILLER_0_1_39
*50 FILLER_0_1_51
*51 FILLER_0_1_55
*52 FILLER_0_1_57
*53 FILLER_0_1_69
*54 FILLER_0_2_15
*55 FILLER_0_2_27
*56 FILLER_0_2_29
*57 FILLER_0_2_3
*58 FILLER_0_2_41
*59 FILLER_0_2_53
*60 FILLER_0_2_65
*61 FILLER_0_2_77
*62 FILLER_0_3_15
*63 FILLER_0_3_27
*64 FILLER_0_3_3
*65 FILLER_0_3_39
*66 FILLER_0_3_51
*67 FILLER_0_3_55
*68 FILLER_0_3_57
*69 FILLER_0_3_69
*70 FILLER_0_4_15
*71 FILLER_0_4_27
*72 FILLER_0_4_3
*73 FILLER_0_4_45
*74 FILLER_0_4_57
*75 FILLER_0_4_69
*76 FILLER_0_5_15
*77 FILLER_0_5_27
*78 FILLER_0_5_3
*79 FILLER_0_5_45
*80 FILLER_0_5_53
*81 FILLER_0_5_57
*82 FILLER_0_5_69
*83 FILLER_0_6_29
*84 FILLER_0_6_3
*85 FILLER_0_6_37
*86 FILLER_0_6_7
*87 FILLER_0_6_75
*88 FILLER_0_7_15
*89 FILLER_0_7_27
*90 FILLER_0_7_3
*91 FILLER_0_7_39
*92 FILLER_0_7_48
*93 FILLER_0_7_57
*94 FILLER_0_8_15
*95 FILLER_0_8_23
*96 FILLER_0_8_29
*97 FILLER_0_8_3
*98 FILLER_0_8_59
*99 FILLER_0_8_67
*100 FILLER_0_8_79
*101 FILLER_0_9_13
*102 FILLER_0_9_21
*103 FILLER_0_9_26
*104 FILLER_0_9_29
*105 FILLER_0_9_3
*106 FILLER_0_9_35
*107 FILLER_0_9_39
*108 FILLER_0_9_46
*109 FILLER_0_9_52
*110 FILLER_0_9_57
*111 FILLER_0_9_61
*112 FILLER_0_9_65
*113 FILLER_0_9_73
*114 FILLER_0_9_9
*115 PHY_EDGE_ROW_0_Left_10
*116 PHY_EDGE_ROW_0_Right_0
*117 PHY_EDGE_ROW_1_Left_11
*118 PHY_EDGE_ROW_1_Right_1
*119 PHY_EDGE_ROW_2_Left_12
*120 PHY_EDGE_ROW_2_Right_2
*121 PHY_EDGE_ROW_3_Left_13
*122 PHY_EDGE_ROW_3_Right_3
*123 PHY_EDGE_ROW_4_Left_14
*124 PHY_EDGE_ROW_4_Right_4
*125 PHY_EDGE_ROW_5_Left_15
*126 PHY_EDGE_ROW_5_Right_5
*127 PHY_EDGE_ROW_6_Left_16
*128 PHY_EDGE_ROW_6_Right_6
*129 PHY_EDGE_ROW_7_Left_17
*130 PHY_EDGE_ROW_7_Right_7
*131 PHY_EDGE_ROW_8_Left_18
*132 PHY_EDGE_ROW_8_Right_8
*133 PHY_EDGE_ROW_9_Left_19
*134 PHY_EDGE_ROW_9_Right_9
*135 TAP_TAPCELL_ROW_0_20
*136 TAP_TAPCELL_ROW_0_21
*137 TAP_TAPCELL_ROW_1_22
*138 TAP_TAPCELL_ROW_2_23
*139 TAP_TAPCELL_ROW_3_24
*140 TAP_TAPCELL_ROW_4_25
*141 TAP_TAPCELL_ROW_5_26
*142 TAP_TAPCELL_ROW_6_27
*143 TAP_TAPCELL_ROW_7_28
*144 TAP_TAPCELL_ROW_8_29
*145 TAP_TAPCELL_ROW_9_30
*146 TAP_TAPCELL_ROW_9_31
*147 _08_
*148 _09_
*149 _10_
*150 _11_
*151 _12_
*152 _13_
*153 _14_
*154 _15_
*155 _16_
*156 _17_
*157 _18_
*158 clkbuf_0_clk
*159 clkbuf_1_0__f_clk
*160 clkbuf_1_1__f_clk
*161 clkload0
*162 input1
*163 input2
*164 input3
*165 input4
*166 input5
*167 input6
*168 input7
*169 output10
*170 output8
*171 output9

*PORTS
D[0] I
D[1] I
D[2] I
D[3] I
D[4] I
D[5] I
D[6] I
D[7] I
O[0] O
O[1] O
O[2] O
clk I

*D_NET *2 0.000934781
*CONN
*P D[1] I
*I *162:A I *D sky130_fd_sc_hd__clkbuf_1
*CAP
1 D[1] 0.00046739
2 *162:A 0.00046739
*RES
1 D[1] *162:A 23.05 
*END

*D_NET *3 0.000934781
*CONN
*P D[2] I
*I *163:A I *D sky130_fd_sc_hd__clkbuf_1
*CAP
1 D[2] 0.00046739
2 *163:A 0.00046739
*RES
1 D[2] *163:A 23.05 
*END

*D_NET *4 0.00105789
*CONN
*P D[3] I
*I *164:A I *D sky130_fd_sc_hd__clkbuf_1
*CAP
1 D[3] 0.000517576
2 *164:A 0.000517576
3 *164:A *29:14 2.27416e-05
*RES
1 D[3] *164:A 23.8714 
*END

*D_NET *5 0.000982482
*CONN
*P D[4] I
*I *165:A I *D sky130_fd_sc_hd__buf_1
*CAP
1 D[4] 0.000465079
2 *165:A 0.000465079
3 *165:A *151:A1 1.92789e-05
4 *165:A *30:8 2.89114e-05
5 *165:A *30:12 4.1331e-06
*RES
1 D[4] *165:A 23.05 
*END

*D_NET *6 0.00118541
*CONN
*P D[5] I
*I *166:A I *D sky130_fd_sc_hd__clkbuf_1
*CAP
1 D[5] 0.000565186
2 *166:A 0.000565186
3 *166:A *31:12 3.67252e-05
4 *166:A *32:14 1.83136e-05
*RES
1 D[5] *166:A 24.9429 
*END

*D_NET *7 0.00101131
*CONN
*P D[6] I
*I *167:A I *D sky130_fd_sc_hd__buf_1
*CAP
1 D[6] 0.000505653
2 *167:A 0.000505653
3 *167:A *168:A 0
*RES
1 D[6] *167:A 23.8714 
*END

*D_NET *8 0.00122602
*CONN
*P D[7] I
*I *168:A I *D sky130_fd_sc_hd__buf_1
*CAP
1 D[7] 0.000613012
2 *168:A 0.000613012
3 *167:A *168:A 0
*RES
1 D[7] *168:A 25.5143 
*END

*D_NET *9 0.000880865
*CONN
*P O[0] O
*I *170:X O *D sky130_fd_sc_hd__buf_2
*CAP
1 O[0] 0.000440432
2 *170:X 0.000440432
*RES
1 *170:X O[0] 21.6393 
*END

*D_NET *10 0.000794933
*CONN
*P O[1] O
*I *171:X O *D sky130_fd_sc_hd__buf_2
*CAP
1 O[1] 0.000397466
2 *171:X 0.000397466
*RES
1 *171:X O[1] 21.7643 
*END

*D_NET *11 0.000810554
*CONN
*P O[2] O
*I *169:X O *D sky130_fd_sc_hd__buf_2
*CAP
1 O[2] 0.000405277
2 *169:X 0.000405277
*RES
1 *169:X O[2] 21.2286 
*END

*D_NET *14 0.00342099
*CONN
*P clk I
*I *158:A I *D sky130_fd_sc_hd__clkbuf_16
*CAP
1 clk 0.00157335
2 *158:A 0.00157335
3 *158:A *159:A 0.000274294
4 *158:A *24:10 0
*RES
1 clk *158:A 25.6633 
*END

*D_NET *15 0.000977667
*CONN
*I *155:D I *D sky130_fd_sc_hd__dfxtp_1
*I *149:X O *D sky130_fd_sc_hd__or4_1
*CAP
1 *155:D 0.000255419
2 *149:X 0.000255419
3 *155:D *155:CLK 0.000126511
4 *155:D *160:A 0.000237052
5 *155:D *161:A 0
6 *155:D *32:29 0.000103267
*RES
1 *149:X *155:D 33.908 
*END

*D_NET *16 0.0016095
*CONN
*I *156:D I *D sky130_fd_sc_hd__dfxtp_1
*I *151:X O *D sky130_fd_sc_hd__a211o_1
*CAP
1 *156:D 0.000677277
2 *151:X 0.000677277
3 *156:D *149:D 1.02504e-05
4 *156:D *154:A2 6.42242e-05
5 *156:D *154:B1_N 0
6 *156:D *157:D 0.00015643
7 *156:D *171:A 2.40379e-05
*RES
1 *151:X *156:D 39.7116 
*END

*D_NET *17 0.00113674
*CONN
*I *157:D I *D sky130_fd_sc_hd__dfxtp_1
*I *154:Y O *D sky130_fd_sc_hd__o21bai_1
*CAP
1 *157:D 0.000404156
2 *154:Y 0.000404156
3 *157:D *157:CLK 8.37183e-05
4 *157:D *171:A 8.82764e-05
5 *156:D *157:D 0.00015643
*RES
1 *154:Y *157:D 36.1759 
*END

*D_NET *18 0.00110519
*CONN
*I *152:A1 I *D sky130_fd_sc_hd__a21oi_1
*I *147:Y O *D sky130_fd_sc_hd__inv_2
*CAP
1 *152:A1 0.000368254
2 *147:Y 0.000368254
3 *152:A1 *147:A 0.000313051
4 *152:A1 *152:B1 2.36164e-05
5 *152:A1 *153:A2 3.2017e-05
*RES
1 *147:Y *152:A1 24.5286 
*END

*D_NET *19 0.000580188
*CONN
*I *151:A1 I *D sky130_fd_sc_hd__a211o_1
*I *148:Y O *D sky130_fd_sc_hd__nor2_1
*CAP
1 *151:A1 0.000254592
2 *148:Y 0.000254592
3 *151:A1 *149:D 3.17067e-05
4 *151:A1 *154:B1_N 5.80706e-06
5 *151:A1 *30:8 1.4211e-05
6 *151:A1 *30:12 0
7 *151:A1 *31:12 0
8 *151:A1 *32:29 0
9 *165:A *151:A1 1.92789e-05
*RES
1 *148:Y *151:A1 31.3143 
*END

*D_NET *20 0.00137339
*CONN
*I *151:A2 I *D sky130_fd_sc_hd__a211o_1
*I *150:X O *D sky130_fd_sc_hd__or2_1
*CAP
1 *151:A2 0.000386095
2 *150:X 0.000386095
3 *151:A2 *149:D 5.52302e-05
4 *151:A2 *151:C1 0
5 *151:A2 *153:A1 2.77413e-05
6 *151:A2 *153:A2 0.000279169
7 *151:A2 *154:A2 5.52302e-05
8 *151:A2 *31:25 0.000179837
9 *151:A2 *33:20 3.99614e-06
*RES
1 *150:X *151:A2 25.4571 
*END

*D_NET *21 0.00124474
*CONN
*I *153:A2 I *D sky130_fd_sc_hd__o21ba_1
*I *152:Y O *D sky130_fd_sc_hd__a21oi_1
*CAP
1 *153:A2 0.000313172
2 *152:Y 0.000313172
3 *153:A2 *147:A 1.74352e-05
4 *153:A2 *150:B 9.99853e-05
5 *153:A2 *152:B1 7.14934e-05
6 *153:A2 *153:A1 4.4966e-05
7 *153:A2 *29:14 7.33344e-05
8 *151:A2 *153:A2 0.000279169
9 *152:A1 *153:A2 3.2017e-05
*RES
1 *152:Y *153:A2 25.4884 
*END

*D_NET *22 0.000363588
*CONN
*I *154:A2 I *D sky130_fd_sc_hd__o21bai_1
*I *153:X O *D sky130_fd_sc_hd__o21ba_1
*CAP
1 *154:A2 0.000122067
2 *153:X 0.000122067
3 *151:A2 *154:A2 5.52302e-05
4 *156:D *154:A2 6.42242e-05
*RES
1 *153:X *154:A2 29.7786 
*END

*D_NET *23 0.00315753
*CONN
*I *160:A I *D sky130_fd_sc_hd__clkbuf_16
*I *159:A I *D sky130_fd_sc_hd__clkbuf_16
*I *158:X O *D sky130_fd_sc_hd__clkbuf_16
*CAP
1 *160:A 0.000422354
2 *159:A 0.000873125
3 *158:X 0
4 *23:4 0.00129548
5 *159:A *24:10 5.52238e-05
6 *155:D *160:A 0.000237052
7 *158:A *159:A 0.000274294
*RES
1 *158:X *23:4 9.3 
2 *23:4 *159:A 20.6571 
3 *23:4 *160:A 25.3 
*END

*D_NET *24 0.00265594
*CONN
*I *156:CLK I *D sky130_fd_sc_hd__dfxtp_1
*I *157:CLK I *D sky130_fd_sc_hd__dfxtp_1
*I *159:X O *D sky130_fd_sc_hd__clkbuf_16
*CAP
1 *156:CLK 3.98129e-05
2 *157:CLK 0.000537023
3 *159:X 0.000666227
4 *24:10 0.00124306
5 *157:CLK *170:A 3.08664e-05
6 *157:D *157:CLK 8.37183e-05
7 *158:A *24:10 0
8 *159:A *24:10 5.52238e-05
*RES
1 *159:X *24:10 22.0321 
2 *24:10 *157:CLK 23.05 
3 *24:10 *156:CLK 14.3357 
*END

*D_NET *25 0.00174513
*CONN
*I *161:A I *D sky130_fd_sc_hd__clkbuf_4
*I *155:CLK I *D sky130_fd_sc_hd__dfxtp_1
*I *160:X O *D sky130_fd_sc_hd__clkbuf_16
*CAP
1 *161:A 7.85945e-05
2 *155:CLK 0.000340855
3 *160:X 0.000389862
4 *25:8 0.000809311
5 *161:A *32:29 0
6 *155:D *155:CLK 0.000126511
7 *155:D *161:A 0
*RES
1 *160:X *25:8 18.0321 
2 *25:8 *155:CLK 19.8536 
3 *25:8 *161:A 15.1393 
*END

*D_NET *26 0.00113122
*CONN
*I *152:A2 I *D sky130_fd_sc_hd__a21oi_1
*I *162:X O *D sky130_fd_sc_hd__clkbuf_1
*CAP
1 *152:A2 0.000565609
2 *162:X 0.000565609
3 *152:A2 *150:B 0
4 *152:A2 *28:10 0
*RES
1 *162:X *152:A2 34.6 
*END

*D_NET *27 0.00178424
*CONN
*I *169:A I *D sky130_fd_sc_hd__buf_2
*I *155:Q O *D sky130_fd_sc_hd__dfxtp_1
*CAP
1 *169:A 0.000892122
2 *155:Q 0.000892122
*RES
1 *155:Q *169:A 43.0464 
*END

*D_NET *28 0.00150599
*CONN
*I *147:A I *D sky130_fd_sc_hd__inv_2
*I *150:B I *D sky130_fd_sc_hd__or2_1
*I *163:X O *D sky130_fd_sc_hd__clkbuf_1
*CAP
1 *147:A 9.21651e-05
2 *150:B 9.10588e-05
3 *163:X 0.000217924
4 *28:10 0.000401148
5 *147:A *152:B1 9.94037e-05
6 *147:A *153:A1 2.34059e-05
7 *147:A *29:14 5.20669e-05
8 *150:B *152:B1 9.83442e-05
9 *152:A1 *147:A 0.000313051
10 *152:A2 *150:B 0
11 *152:A2 *28:10 0
12 *153:A2 *147:A 1.74352e-05
13 *153:A2 *150:B 9.99853e-05
*RES
1 *163:X *28:10 16.4964 
2 *28:10 *150:B 15.7821 
3 *28:10 *147:A 17.5321 
*END

*D_NET *29 0.0010523
*CONN
*I *150:A I *D sky130_fd_sc_hd__or2_1
*I *152:B1 I *D sky130_fd_sc_hd__a21oi_1
*I *164:X O *D sky130_fd_sc_hd__clkbuf_1
*CAP
1 *150:A 0
2 *152:B1 4.75777e-05
3 *164:X 0.000258074
4 *29:14 0.000305651
5 *29:14 *148:A 0
6 *147:A *152:B1 9.94037e-05
7 *147:A *29:14 5.20669e-05
8 *150:B *152:B1 9.83442e-05
9 *152:A1 *152:B1 2.36164e-05
10 *153:A2 *152:B1 7.14934e-05
11 *153:A2 *29:14 7.33344e-05
12 *164:A *29:14 2.27416e-05
*RES
1 *164:X *29:14 22.1393 
2 *29:14 *152:B1 11.4786 
3 *29:14 *150:A 9.3 
*END

*D_NET *30 0.00233977
*CONN
*I *148:B I *D sky130_fd_sc_hd__nor2_1
*I *149:D I *D sky130_fd_sc_hd__or4_1
*I *153:A1 I *D sky130_fd_sc_hd__o21ba_1
*I *165:X O *D sky130_fd_sc_hd__buf_1
*CAP
1 *148:B 0
2 *149:D 0.000390984
3 *153:A1 0.000187254
4 *165:X 0.000255328
5 *30:12 0.000683386
6 *30:8 0.000360476
7 *149:D *151:C1 2.03961e-05
8 *149:D *154:B1_N 0
9 *149:D *31:25 3.21306e-05
10 *149:D *33:20 2.95831e-05
11 *153:A1 *31:25 5.33433e-05
12 *30:12 *148:A 8.6332e-05
13 *147:A *153:A1 2.34059e-05
14 *151:A1 *149:D 3.17067e-05
15 *151:A1 *30:8 1.4211e-05
16 *151:A1 *30:12 0
17 *151:A2 *149:D 5.52302e-05
18 *151:A2 *153:A1 2.77413e-05
19 *153:A2 *153:A1 4.4966e-05
20 *156:D *149:D 1.02504e-05
21 *165:A *30:8 2.89114e-05
22 *165:A *30:12 4.1331e-06
*RES
1 *165:X *30:8 12.6214 
2 *30:8 *30:12 6.75 
3 *30:12 *153:A1 17.5321 
4 *30:12 *149:D 19.2598 
5 *30:8 *148:B 9.3 
*END

*D_NET *31 0.00221539
*CONN
*I *153:B1_N I *D sky130_fd_sc_hd__o21ba_1
*I *148:A I *D sky130_fd_sc_hd__nor2_1
*I *149:C I *D sky130_fd_sc_hd__or4_1
*I *166:X O *D sky130_fd_sc_hd__clkbuf_1
*CAP
1 *153:B1_N 0
2 *148:A 0.000159405
3 *149:C 0
4 *166:X 0.000362012
5 *31:25 0.000448671
6 *31:12 0.000651279
7 *31:12 *32:29 2.84019e-05
8 *31:25 *33:20 0.000177253
9 *149:D *31:25 3.21306e-05
10 *151:A1 *31:12 0
11 *151:A2 *31:25 0.000179837
12 *153:A1 *31:25 5.33433e-05
13 *166:A *31:12 3.67252e-05
14 *29:14 *148:A 0
15 *30:12 *148:A 8.6332e-05
*RES
1 *166:X *31:12 22.9429 
2 *31:12 *149:C 9.3 
3 *31:12 *31:25 6.33929 
4 *31:25 *148:A 21.3089 
5 *31:25 *153:B1_N 9.3 
*END

*D_NET *32 0.00337198
*CONN
*I *151:C1 I *D sky130_fd_sc_hd__a211o_1
*I *154:A1 I *D sky130_fd_sc_hd__o21bai_1
*I *149:B I *D sky130_fd_sc_hd__or4_1
*I *167:X O *D sky130_fd_sc_hd__buf_1
*CAP
1 *151:C1 8.59509e-05
2 *154:A1 0.000290177
3 *149:B 4.44819e-05
4 *167:X 0.00069327
5 *32:29 0.000638524
6 *32:14 0.00100015
7 *149:B *33:12 1.92789e-05
8 *149:B *33:20 5.30637e-06
9 *151:C1 *154:B1_N 0.000123359
10 *151:C1 *33:20 1.75575e-05
11 *154:A1 *154:B1_N 0.00018624
12 *32:14 *33:12 9.73056e-05
13 *149:D *151:C1 2.03961e-05
14 *151:A1 *32:29 0
15 *151:A2 *151:C1 0
16 *155:D *32:29 0.000103267
17 *161:A *32:29 0
18 *166:A *32:14 1.83136e-05
19 *31:12 *32:29 2.84019e-05
*RES
1 *167:X *32:14 26.9786 
2 *32:14 *149:B 9.83571 
3 *32:14 *32:29 14.0357 
4 *32:29 *154:A1 13.9607 
5 *32:29 *151:C1 20.4429 
*END

*D_NET *33 0.00252595
*CONN
*I *149:A I *D sky130_fd_sc_hd__or4_1
*I *151:B1 I *D sky130_fd_sc_hd__a211o_1
*I *154:B1_N I *D sky130_fd_sc_hd__o21bai_1
*I *168:X O *D sky130_fd_sc_hd__buf_1
*CAP
1 *149:A 0
2 *151:B1 0
3 *154:B1_N 0.000186332
4 *168:X 0.000640595
5 *33:20 0.000289535
6 *33:12 0.000743799
7 *149:B *33:12 1.92789e-05
8 *149:B *33:20 5.30637e-06
9 *149:D *154:B1_N 0
10 *149:D *33:20 2.95831e-05
11 *151:A1 *154:B1_N 5.80706e-06
12 *151:A2 *33:20 3.99614e-06
13 *151:C1 *154:B1_N 0.000123359
14 *151:C1 *33:20 1.75575e-05
15 *154:A1 *154:B1_N 0.00018624
16 *156:D *154:B1_N 0
17 *31:25 *33:20 0.000177253
18 *32:14 *33:12 9.73056e-05
*RES
1 *168:X *33:12 29.4071 
2 *33:12 *33:20 3.16071 
3 *33:20 *154:B1_N 22.3179 
4 *33:20 *151:B1 9.3 
5 *33:12 *149:A 9.3 
*END

*D_NET *34 0.00228738
*CONN
*I *170:A I *D sky130_fd_sc_hd__buf_2
*I *157:Q O *D sky130_fd_sc_hd__dfxtp_1
*CAP
1 *170:A 0.00112826
2 *157:Q 0.00112826
3 *157:CLK *170:A 3.08664e-05
*RES
1 *157:Q *170:A 44.8857 
*END

*D_NET *35 0.00149584
*CONN
*I *171:A I *D sky130_fd_sc_hd__buf_2
*I *156:Q O *D sky130_fd_sc_hd__dfxtp_1
*CAP
1 *171:A 0.000691765
2 *156:Q 0.000691765
3 *156:D *171:A 2.40379e-05
4 *157:D *171:A 8.82764e-05
*RES
1 *156:Q *171:A 40.2071 
*END
