*SPEF "ieee 1481-1999"
*DESIGN "priority_encoder"
*DATE "13:57:41 Wednesday November 06, 2024"
*VENDOR "The OpenROAD Project"
*PROGRAM "OpenROAD"
*VERSION "b16bda7e82721d10566ff7e2b68f1ff0be9f9e38"
*DESIGN_FLOW "NAME_SCOPE LOCAL" "PIN_CAP NONE"
*DIVIDER /
*DELIMITER :
*BUS_DELIMITER []
*T_UNIT 1 NS
*C_UNIT 1 PF
*R_UNIT 1 OHM
*L_UNIT 1 HENRY

*NAME_MAP
*1 D[0]
*2 D[1]
*3 D[2]
*4 D[3]
*5 D[4]
*6 D[5]
*7 D[6]
*8 D[7]
*9 O[0]
*10 O[1]
*11 O[2]
*14 clk
*15 _00_
*16 _01_
*17 _02_
*18 _03_
*19 _04_
*20 _05_
*21 _06_
*22 _07_
*23 clknet_0_clk
*24 clknet_1_0__leaf_clk
*25 clknet_1_1__leaf_clk
*26 net1
*27 net10
*28 net2
*29 net3
*30 net4
*31 net5
*32 net6
*33 net7
*34 net8
*35 net9
*36 FILLER_0_0_11
*37 FILLER_0_0_23
*38 FILLER_0_0_27
*39 FILLER_0_0_29
*40 FILLER_0_0_3
*41 FILLER_0_0_41
*42 FILLER_0_0_47
*43 FILLER_0_0_55
*44 FILLER_0_0_57
*45 FILLER_0_0_69
*46 FILLER_0_1_15
*47 FILLER_0_1_27
*48 FILLER_0_1_3
*49 FILLER_0_1_39
*50 FILLER_0_1_51
*51 FILLER_0_1_55
*52 FILLER_0_1_57
*53 FILLER_0_1_69
*54 FILLER_0_2_15
*55 FILLER_0_2_27
*56 FILLER_0_2_29
*57 FILLER_0_2_3
*58 FILLER_0_2_41
*59 FILLER_0_2_53
*60 FILLER_0_2_65
*61 FILLER_0_2_77
*62 FILLER_0_3_15
*63 FILLER_0_3_27
*64 FILLER_0_3_3
*65 FILLER_0_3_39
*66 FILLER_0_3_51
*67 FILLER_0_3_55
*68 FILLER_0_3_57
*69 FILLER_0_3_69
*70 FILLER_0_4_15
*71 FILLER_0_4_27
*72 FILLER_0_4_3
*73 FILLER_0_4_45
*74 FILLER_0_4_57
*75 FILLER_0_4_69
*76 FILLER_0_5_15
*77 FILLER_0_5_27
*78 FILLER_0_5_3
*79 FILLER_0_5_45
*80 FILLER_0_5_53
*81 FILLER_0_5_57
*82 FILLER_0_5_69
*83 FILLER_0_6_29
*84 FILLER_0_6_3
*85 FILLER_0_6_37
*86 FILLER_0_6_7
*87 FILLER_0_6_75
*88 FILLER_0_7_15
*89 FILLER_0_7_27
*90 FILLER_0_7_3
*91 FILLER_0_7_39
*92 FILLER_0_7_48
*93 FILLER_0_7_57
*94 FILLER_0_8_15
*95 FILLER_0_8_23
*96 FILLER_0_8_29
*97 FILLER_0_8_3
*98 FILLER_0_8_59
*99 FILLER_0_8_67
*100 FILLER_0_8_79
*101 FILLER_0_9_13
*102 FILLER_0_9_21
*103 FILLER_0_9_26
*104 FILLER_0_9_29
*105 FILLER_0_9_3
*106 FILLER_0_9_35
*107 FILLER_0_9_39
*108 FILLER_0_9_46
*109 FILLER_0_9_52
*110 FILLER_0_9_57
*111 FILLER_0_9_61
*112 FILLER_0_9_65
*113 FILLER_0_9_73
*114 FILLER_0_9_9
*115 PHY_EDGE_ROW_0_Left_10
*116 PHY_EDGE_ROW_0_Right_0
*117 PHY_EDGE_ROW_1_Left_11
*118 PHY_EDGE_ROW_1_Right_1
*119 PHY_EDGE_ROW_2_Left_12
*120 PHY_EDGE_ROW_2_Right_2
*121 PHY_EDGE_ROW_3_Left_13
*122 PHY_EDGE_ROW_3_Right_3
*123 PHY_EDGE_ROW_4_Left_14
*124 PHY_EDGE_ROW_4_Right_4
*125 PHY_EDGE_ROW_5_Left_15
*126 PHY_EDGE_ROW_5_Right_5
*127 PHY_EDGE_ROW_6_Left_16
*128 PHY_EDGE_ROW_6_Right_6
*129 PHY_EDGE_ROW_7_Left_17
*130 PHY_EDGE_ROW_7_Right_7
*131 PHY_EDGE_ROW_8_Left_18
*132 PHY_EDGE_ROW_8_Right_8
*133 PHY_EDGE_ROW_9_Left_19
*134 PHY_EDGE_ROW_9_Right_9
*135 TAP_TAPCELL_ROW_0_20
*136 TAP_TAPCELL_ROW_0_21
*137 TAP_TAPCELL_ROW_1_22
*138 TAP_TAPCELL_ROW_2_23
*139 TAP_TAPCELL_ROW_3_24
*140 TAP_TAPCELL_ROW_4_25
*141 TAP_TAPCELL_ROW_5_26
*142 TAP_TAPCELL_ROW_6_27
*143 TAP_TAPCELL_ROW_7_28
*144 TAP_TAPCELL_ROW_8_29
*145 TAP_TAPCELL_ROW_9_30
*146 TAP_TAPCELL_ROW_9_31
*147 _08_
*148 _09_
*149 _10_
*150 _11_
*151 _12_
*152 _13_
*153 _14_
*154 _15_
*155 _16_
*156 _17_
*157 _18_
*158 clkbuf_0_clk
*159 clkbuf_1_0__f_clk
*160 clkbuf_1_1__f_clk
*161 clkload0
*162 input1
*163 input2
*164 input3
*165 input4
*166 input5
*167 input6
*168 input7
*169 output10
*170 output8
*171 output9

*PORTS
D[0] I
D[1] I
D[2] I
D[3] I
D[4] I
D[5] I
D[6] I
D[7] I
O[0] O
O[1] O
O[2] O
clk I

*D_NET *2 0.000982606
*CONN
*P D[1] I
*I *162:A I *D sky130_fd_sc_hd__clkbuf_1
*CAP
1 D[1] 0.000491303
2 *162:A 0.000491303
*RES
1 D[1] *162:A 48.73 
*END

*D_NET *3 0.000982606
*CONN
*P D[2] I
*I *163:A I *D sky130_fd_sc_hd__clkbuf_1
*CAP
1 D[2] 0.000491303
2 *163:A 0.000491303
*RES
1 D[2] *163:A 48.73 
*END

*D_NET *4 0.00112214
*CONN
*P D[3] I
*I *164:A I *D sky130_fd_sc_hd__clkbuf_1
*CAP
1 D[3] 0.000549555
2 *164:A 0.000549555
3 *164:A *29:10 2.30292e-05
*RES
1 D[3] *164:A 49.6829 
*END

*D_NET *5 0.0010513
*CONN
*P D[4] I
*I *165:A I *D sky130_fd_sc_hd__buf_1
*CAP
1 D[4] 0.000499114
2 *165:A 0.000499114
3 *165:A *19:10 1.94693e-05
4 *165:A *30:8 2.93845e-05
5 *165:A *30:12 4.21594e-06
*RES
1 D[4] *165:A 48.73 
*END

*D_NET *6 0.00126011
*CONN
*P D[5] I
*I *166:A I *D sky130_fd_sc_hd__clkbuf_1
*CAP
1 D[5] 0.000602558
2 *166:A 0
3 *6:13 0.000602558
4 *6:13 *31:10 3.66555e-05
5 *6:13 *32:10 1.83408e-05
*RES
1 D[5] *6:13 27.9257 
2 *6:13 *166:A 23 
*END

*D_NET *7 0.00106389
*CONN
*P D[6] I
*I *167:A I *D sky130_fd_sc_hd__buf_1
*CAP
1 D[6] 0.000531944
2 *167:A 0.000531944
3 *167:A *8:9 0
*RES
1 D[6] *167:A 49.6829 
*END

*D_NET *8 0.00129076
*CONN
*P D[7] I
*I *168:A I *D sky130_fd_sc_hd__buf_1
*CAP
1 D[7] 0.000645379
2 *168:A 0
3 *8:9 0.000645379
4 *167:A *8:9 0
*RES
1 D[7] *8:9 28.5886 
2 *8:9 *168:A 23 
*END

*D_NET *9 0.000936389
*CONN
*P O[0] O
*I *170:X O *D sky130_fd_sc_hd__buf_2
*CAP
1 O[0] 0.000468195
2 *170:X 0.000468195
*RES
1 *170:X O[0] 47.0936 
*END

*D_NET *10 0.000839267
*CONN
*P O[1] O
*I *171:X O *D sky130_fd_sc_hd__buf_2
*CAP
1 O[1] 0.000419634
2 *171:X 0.000419634
*RES
1 *171:X O[1] 47.2386 
*END

*D_NET *11 0.000864283
*CONN
*P O[2] O
*I *169:X O *D sky130_fd_sc_hd__buf_2
*CAP
1 O[2] 0.000432142
2 *169:X 0.000432142
*RES
1 *169:X O[2] 46.6171 
*END

*D_NET *14 0.00379507
*CONN
*P clk I
*I *158:A I *D sky130_fd_sc_hd__clkbuf_16
*CAP
1 clk 0.00176134
2 *158:A 0
3 *14:19 0.00176134
4 *14:19 *159:A 0.000272383
5 *14:19 *24:10 0
*RES
1 clk *14:19 32.898 
2 *14:19 *158:A 23 
*END

*D_NET *15 0.00107351
*CONN
*I *155:D I *D sky130_fd_sc_hd__dfxtp_1
*I *149:X O *D sky130_fd_sc_hd__or4_1
*CAP
1 *155:D 7.63857e-05
2 *149:X 0.000218166
3 *15:8 0.000294552
4 *155:D *155:CLK 0.000127664
5 *155:D *23:25 9.84794e-05
6 *15:8 *155:CLK 0
7 *15:8 *161:A 0
8 *15:8 *23:25 0.000144168
9 *15:8 *32:29 0.000114092
*RES
1 *149:X *15:8 43.4271 
2 *15:8 *155:D 39.8902 
*END

*D_NET *16 0.00177647
*CONN
*I *156:D I *D sky130_fd_sc_hd__dfxtp_1
*I *151:X O *D sky130_fd_sc_hd__a211o_1
*CAP
1 *156:D 0.000431769
2 *151:X 0.000323811
3 *16:8 0.00075558
4 *156:D *35:8 2.38288e-05
5 *16:8 *149:D 1.14452e-05
6 *16:8 *17:12 0.000163168
7 *16:8 *22:10 6.6869e-05
8 *16:8 *33:28 0
*RES
1 *151:X *16:8 45.1879 
2 *16:8 *156:D 44.8616 
*END

*D_NET *17 0.00126426
*CONN
*I *157:D I *D sky130_fd_sc_hd__dfxtp_1
*I *154:Y O *D sky130_fd_sc_hd__o21bai_1
*CAP
1 *157:D 4.39702e-05
2 *154:Y 0.000418168
3 *17:12 0.000462138
4 *157:D *157:CLK 8.50888e-05
5 *17:12 *35:12 9.17278e-05
6 *16:8 *17:12 0.000163168
*RES
1 *154:Y *17:12 47.0107 
2 *17:12 *157:D 38.9373 
*END

*D_NET *18 0.00115281
*CONN
*I *152:A1 I *D sky130_fd_sc_hd__a21oi_1
*I *147:Y O *D sky130_fd_sc_hd__inv_2
*CAP
1 *152:A1 0
2 *147:Y 0.000389427
3 *18:12 0.000389427
4 *18:12 *147:A 0.000318045
5 *18:12 *152:B1 2.3615e-05
6 *18:12 *21:12 3.2293e-05
*RES
1 *147:Y *18:12 29.8771 
2 *18:12 *152:A1 23 
*END

*D_NET *19 0.000635154
*CONN
*I *151:A1 I *D sky130_fd_sc_hd__a211o_1
*I *148:Y O *D sky130_fd_sc_hd__nor2_1
*CAP
1 *151:A1 0
2 *148:Y 0.000281248
3 *19:10 0.000281248
4 *19:10 *149:D 3.31127e-05
5 *19:10 *30:8 1.40004e-05
6 *19:10 *30:12 0
7 *19:10 *31:10 0
8 *19:10 *32:29 0
9 *19:10 *33:28 6.07611e-06
10 *165:A *19:10 1.94693e-05
*RES
1 *148:Y *19:10 42.3086 
2 *19:10 *151:A1 38 
*END

*D_NET *20 0.00142836
*CONN
*I *151:A2 I *D sky130_fd_sc_hd__a211o_1
*I *150:X O *D sky130_fd_sc_hd__or2_1
*CAP
1 *151:A2 0
2 *150:X 0.000415074
3 *20:12 0.000415074
4 *20:12 *149:D 5.50106e-05
5 *20:12 *153:A1 2.64363e-05
6 *20:12 *21:12 0.000277698
7 *20:12 *22:10 5.50106e-05
8 *20:12 *31:25 0.000180049
9 *20:12 *32:48 0
10 *20:12 *33:20 4.00259e-06
*RES
1 *150:X *20:12 30.9543 
2 *20:12 *151:A2 23 
*END

*D_NET *21 0.00127738
*CONN
*I *153:A2 I *D sky130_fd_sc_hd__o21ba_1
*I *152:Y O *D sky130_fd_sc_hd__a21oi_1
*CAP
1 *153:A2 0
2 *152:Y 0.000326639
3 *21:12 0.000326639
4 *21:12 *147:A 1.76557e-05
5 *21:12 *150:B 0.000102389
6 *21:12 *152:B1 7.41132e-05
7 *21:12 *153:A1 4.54513e-05
8 *21:12 *29:14 7.45049e-05
9 *18:12 *21:12 3.2293e-05
10 *20:12 *21:12 0.000277698
*RES
1 *152:Y *21:12 30.9905 
2 *21:12 *153:A2 23 
*END

*D_NET *22 0.000406954
*CONN
*I *154:A2 I *D sky130_fd_sc_hd__o21bai_1
*I *153:X O *D sky130_fd_sc_hd__o21ba_1
*CAP
1 *154:A2 0
2 *153:X 0.000142537
3 *22:10 0.000142537
4 *16:8 *22:10 6.6869e-05
5 *20:12 *22:10 5.50106e-05
*RES
1 *153:X *22:10 40.5271 
2 *22:10 *154:A2 38 
*END

*D_NET *23 0.00331811
*CONN
*I *160:A I *D sky130_fd_sc_hd__clkbuf_16
*I *159:A I *D sky130_fd_sc_hd__clkbuf_16
*I *158:X O *D sky130_fd_sc_hd__clkbuf_16
*CAP
1 *160:A 0
2 *159:A 0.000918707
3 *158:X 0
4 *23:25 0.000455327
5 *23:4 0.00137403
6 *159:A *24:10 5.50049e-05
7 *155:D *23:25 9.84794e-05
8 *14:19 *159:A 0.000272383
9 *15:8 *23:25 0.000144168
*RES
1 *158:X *23:4 23 
2 *23:4 *159:A 36.1743 
3 *23:4 *23:25 38.12 
4 *23:25 *160:A 23 
*END

*D_NET *24 0.00283847
*CONN
*I *156:CLK I *D sky130_fd_sc_hd__dfxtp_1
*I *157:CLK I *D sky130_fd_sc_hd__dfxtp_1
*I *159:X O *D sky130_fd_sc_hd__clkbuf_16
*CAP
1 *156:CLK 4.66792e-05
2 *157:CLK 0.000581091
3 *159:X 0.000705317
4 *24:10 0.00133309
5 *157:CLK *34:8 3.22051e-05
6 *157:D *157:CLK 8.50888e-05
7 *159:A *24:10 5.50049e-05
8 *14:19 *24:10 0
*RES
1 *159:X *24:10 47.5493 
2 *24:10 *157:CLK 48.73 
3 *24:10 *156:CLK 38.6214 
*END

*D_NET *25 0.0018911
*CONN
*I *161:A I *D sky130_fd_sc_hd__clkbuf_4
*I *155:CLK I *D sky130_fd_sc_hd__dfxtp_1
*I *160:X O *D sky130_fd_sc_hd__clkbuf_16
*CAP
1 *161:A 8.92671e-05
2 *155:CLK 0.000377782
3 *160:X 0.000414671
4 *25:8 0.000881719
5 *161:A *32:29 0
6 *155:D *155:CLK 0.000127664
7 *15:8 *155:CLK 0
8 *15:8 *161:A 0
*RES
1 *160:X *25:8 42.9093 
2 *25:8 *155:CLK 45.0221 
3 *25:8 *161:A 39.5536 
*END

*D_NET *26 0.00119266
*CONN
*I *152:A2 I *D sky130_fd_sc_hd__a21oi_1
*I *162:X O *D sky130_fd_sc_hd__clkbuf_1
*CAP
1 *152:A2 0
2 *162:X 0.000596331
3 *26:10 0.000596331
4 *26:10 *150:B 0
5 *26:10 *28:10 0
*RES
1 *162:X *26:10 46.12 
2 *26:10 *152:A2 38 
*END

*D_NET *27 0.00194229
*CONN
*I *169:A I *D sky130_fd_sc_hd__buf_2
*I *155:Q O *D sky130_fd_sc_hd__dfxtp_1
*CAP
1 *169:A 0
2 *155:Q 0.000126929
3 *27:12 0.000844217
4 *27:8 0.000971145
*RES
1 *155:Q *27:8 39.5743 
2 *27:8 *27:12 31.3436 
3 *27:12 *169:A 23 
*END

*D_NET *28 0.00161926
*CONN
*I *147:A I *D sky130_fd_sc_hd__inv_2
*I *150:B I *D sky130_fd_sc_hd__or2_1
*I *163:X O *D sky130_fd_sc_hd__clkbuf_1
*CAP
1 *147:A 0.000106224
2 *150:B 0.000103738
3 *163:X 0.000240149
4 *28:10 0.000450111
5 *147:A *152:B1 0.000103415
6 *147:A *153:A1 2.34437e-05
7 *147:A *29:14 5.40241e-05
8 *150:B *152:B1 0.000100069
9 *18:12 *147:A 0.000318045
10 *21:12 *147:A 1.76557e-05
11 *21:12 *150:B 0.000102389
12 *26:10 *150:B 0
13 *26:10 *28:10 0
*RES
1 *163:X *28:10 41.1279 
2 *28:10 *150:B 40.2993 
3 *28:10 *147:A 42.3293 
*END

*D_NET *29 0.00115366
*CONN
*I *150:A I *D sky130_fd_sc_hd__or2_1
*I *152:B1 I *D sky130_fd_sc_hd__a21oi_1
*I *164:X O *D sky130_fd_sc_hd__clkbuf_1
*CAP
1 *150:A 0
2 *152:B1 5.58344e-05
3 *164:X 0.000272284
4 *29:14 7.81636e-05
5 *29:10 0.000294613
6 *29:10 *31:33 0
7 *147:A *152:B1 0.000103415
8 *147:A *29:14 5.40241e-05
9 *150:B *152:B1 0.000100069
10 *164:A *29:10 2.30292e-05
11 *18:12 *152:B1 2.3615e-05
12 *21:12 *152:B1 7.41132e-05
13 *21:12 *29:14 7.45049e-05
*RES
1 *164:X *29:10 41.3557 
2 *29:10 *29:14 16.0979 
3 *29:14 *152:B1 25.5271 
4 *29:14 *150:A 23 
*END

*D_NET *30 0.00252393
*CONN
*I *148:B I *D sky130_fd_sc_hd__nor2_1
*I *149:D I *D sky130_fd_sc_hd__or4_1
*I *153:A1 I *D sky130_fd_sc_hd__o21ba_1
*I *165:X O *D sky130_fd_sc_hd__buf_1
*CAP
1 *148:B 0
2 *149:D 0.00042676
3 *153:A1 0.00020566
4 *165:X 0.000268645
5 *30:12 0.000758391
6 *30:8 0.000394616
7 *149:D *31:25 3.15583e-05
8 *149:D *32:48 2.1975e-05
9 *149:D *33:20 3.00519e-05
10 *149:D *33:28 0
11 *153:A1 *31:25 5.41385e-05
12 *30:12 *31:33 8.96322e-05
13 *147:A *153:A1 2.34437e-05
14 *165:A *30:8 2.93845e-05
15 *165:A *30:12 4.21594e-06
16 *16:8 *149:D 1.14452e-05
17 *19:10 *149:D 3.31127e-05
18 *19:10 *30:8 1.40004e-05
19 *19:10 *30:12 0
20 *20:12 *149:D 5.50106e-05
21 *20:12 *153:A1 2.64363e-05
22 *21:12 *153:A1 4.54513e-05
*RES
1 *165:X *30:8 26.8529 
2 *30:8 *30:12 17.61 
3 *30:12 *153:A1 42.3293 
4 *30:12 *149:D 44.3334 
5 *30:8 *148:B 23 
*END

*D_NET *31 0.00241288
*CONN
*I *153:B1_N I *D sky130_fd_sc_hd__o21ba_1
*I *148:A I *D sky130_fd_sc_hd__nor2_1
*I *149:C I *D sky130_fd_sc_hd__or4_1
*I *166:X O *D sky130_fd_sc_hd__clkbuf_1
*CAP
1 *153:B1_N 0
2 *148:A 0
3 *149:C 0
4 *166:X 0.000398574
5 *31:33 0.000186336
6 *31:25 0.00050573
7 *31:12 0.000319395
8 *31:10 0.000398574
9 *31:10 *32:29 2.94915e-05
10 *31:25 *33:20 0.000182747
11 *149:D *31:25 3.15583e-05
12 *153:A1 *31:25 5.41385e-05
13 *6:13 *31:10 3.66555e-05
14 *19:10 *31:10 0
15 *20:12 *31:25 0.000180049
16 *29:10 *31:33 0
17 *30:12 *31:33 8.96322e-05
*RES
1 *166:X *31:10 43.3857 
2 *31:10 *31:12 15 
3 *31:12 *149:C 23 
4 *31:12 *31:25 7.35357 
5 *31:25 *31:33 33.4904 
6 *31:33 *148:A 23 
7 *31:25 *153:B1_N 23 
*END

*D_NET *32 0.00365168
*CONN
*I *151:C1 I *D sky130_fd_sc_hd__a211o_1
*I *154:A1 I *D sky130_fd_sc_hd__o21bai_1
*I *149:B I *D sky130_fd_sc_hd__or4_1
*I *167:X O *D sky130_fd_sc_hd__buf_1
*CAP
1 *151:C1 0
2 *154:A1 0.000320994
3 *149:B 4.87344e-05
4 *167:X 0.000534644
5 *32:48 0.000103877
6 *32:29 0.000720585
7 *32:14 0.000542026
8 *32:10 0.000732222
9 *149:B *33:12 1.94693e-05
10 *149:B *33:20 5.37348e-06
11 *154:A1 *33:28 0.000186385
12 *32:14 *33:12 9.76614e-05
13 *32:48 *33:20 1.91997e-05
14 *32:48 *33:28 0.000136609
15 *149:D *32:48 2.1975e-05
16 *161:A *32:29 0
17 *6:13 *32:10 1.83408e-05
18 *15:8 *32:29 0.000114092
19 *19:10 *32:29 0
20 *20:12 *32:48 0
21 *31:10 *32:29 2.94915e-05
*RES
1 *167:X *32:10 45.0636 
2 *32:10 *32:14 18.0036 
3 *32:14 *149:B 23.6214 
4 *32:14 *32:29 35.8414 
5 *32:29 *154:A1 28.4064 
6 *32:29 *32:48 32.4857 
7 *32:48 *151:C1 23 
*END

*D_NET *33 0.00275533
*CONN
*I *149:A I *D sky130_fd_sc_hd__or4_1
*I *151:B1 I *D sky130_fd_sc_hd__a211o_1
*I *154:B1_N I *D sky130_fd_sc_hd__o21bai_1
*I *168:X O *D sky130_fd_sc_hd__buf_1
*CAP
1 *149:A 0
2 *151:B1 0
3 *154:B1_N 0
4 *168:X 0.000126199
5 *33:28 0.00021798
6 *33:20 0.000330824
7 *33:12 0.000689699
8 *33:8 0.000703055
9 *149:B *33:12 1.94693e-05
10 *149:B *33:20 5.37348e-06
11 *149:D *33:20 3.00519e-05
12 *149:D *33:28 0
13 *154:A1 *33:28 0.000186385
14 *16:8 *33:28 0
15 *19:10 *33:28 6.07611e-06
16 *20:12 *33:20 4.00259e-06
17 *31:25 *33:20 0.000182747
18 *32:14 *33:12 9.76614e-05
19 *32:48 *33:20 1.91997e-05
20 *32:48 *33:28 0.000136609
*RES
1 *168:X *33:8 40.2579 
2 *33:8 *33:12 25.6264 
3 *33:12 *33:20 3.66643 
4 *33:20 *33:28 34.6607 
5 *33:28 *154:B1_N 23 
6 *33:20 *151:B1 23 
7 *33:12 *149:A 23 
*END

*D_NET *34 0.00243316
*CONN
*I *170:A I *D sky130_fd_sc_hd__buf_2
*I *157:Q O *D sky130_fd_sc_hd__dfxtp_1
*CAP
1 *170:A 0
2 *157:Q 0.000412631
3 *34:14 0.000787848
4 *34:8 0.00120048
5 *157:CLK *34:8 3.22051e-05
*RES
1 *157:Q *34:8 43.3857 
2 *34:8 *34:14 29.6657 
3 *34:14 *170:A 23 
*END

*D_NET *35 0.00164344
*CONN
*I *171:A I *D sky130_fd_sc_hd__buf_2
*I *156:Q O *D sky130_fd_sc_hd__dfxtp_1
*CAP
1 *171:A 0
2 *156:Q 8.78391e-05
3 *35:12 0.000676103
4 *35:8 0.000763943
5 *156:D *35:8 2.38288e-05
6 *17:12 *35:12 9.17278e-05
*RES
1 *156:Q *35:8 39.0979 
2 *35:8 *35:12 28.5264 
3 *35:12 *171:A 23 
*END
