*SPEF "ieee 1481-1999"
*DESIGN "priority_encoder"
*DATE "13:57:38 Wednesday November 06, 2024"
*VENDOR "The OpenROAD Project"
*PROGRAM "OpenROAD"
*VERSION "b16bda7e82721d10566ff7e2b68f1ff0be9f9e38"
*DESIGN_FLOW "NAME_SCOPE LOCAL" "PIN_CAP NONE"
*DIVIDER /
*DELIMITER :
*BUS_DELIMITER []
*T_UNIT 1 NS
*C_UNIT 1 PF
*R_UNIT 1 OHM
*L_UNIT 1 HENRY

*NAME_MAP
*1 D[0]
*2 D[1]
*3 D[2]
*4 D[3]
*5 D[4]
*6 D[5]
*7 D[6]
*8 D[7]
*9 O[0]
*10 O[1]
*11 O[2]
*14 clk
*15 _00_
*16 _01_
*17 _02_
*18 _03_
*19 _04_
*20 _05_
*21 _06_
*22 _07_
*23 clknet_0_clk
*24 clknet_1_0__leaf_clk
*25 clknet_1_1__leaf_clk
*26 net1
*27 net10
*28 net2
*29 net3
*30 net4
*31 net5
*32 net6
*33 net7
*34 net8
*35 net9
*36 FILLER_0_0_11
*37 FILLER_0_0_23
*38 FILLER_0_0_27
*39 FILLER_0_0_29
*40 FILLER_0_0_3
*41 FILLER_0_0_41
*42 FILLER_0_0_47
*43 FILLER_0_0_55
*44 FILLER_0_0_57
*45 FILLER_0_0_69
*46 FILLER_0_1_15
*47 FILLER_0_1_27
*48 FILLER_0_1_3
*49 FILLER_0_1_39
*50 FILLER_0_1_51
*51 FILLER_0_1_55
*52 FILLER_0_1_57
*53 FILLER_0_1_69
*54 FILLER_0_2_15
*55 FILLER_0_2_27
*56 FILLER_0_2_29
*57 FILLER_0_2_3
*58 FILLER_0_2_41
*59 FILLER_0_2_53
*60 FILLER_0_2_65
*61 FILLER_0_2_77
*62 FILLER_0_3_15
*63 FILLER_0_3_27
*64 FILLER_0_3_3
*65 FILLER_0_3_39
*66 FILLER_0_3_51
*67 FILLER_0_3_55
*68 FILLER_0_3_57
*69 FILLER_0_3_69
*70 FILLER_0_4_15
*71 FILLER_0_4_27
*72 FILLER_0_4_3
*73 FILLER_0_4_45
*74 FILLER_0_4_57
*75 FILLER_0_4_69
*76 FILLER_0_5_15
*77 FILLER_0_5_27
*78 FILLER_0_5_3
*79 FILLER_0_5_45
*80 FILLER_0_5_53
*81 FILLER_0_5_57
*82 FILLER_0_5_69
*83 FILLER_0_6_29
*84 FILLER_0_6_3
*85 FILLER_0_6_37
*86 FILLER_0_6_7
*87 FILLER_0_6_75
*88 FILLER_0_7_15
*89 FILLER_0_7_27
*90 FILLER_0_7_3
*91 FILLER_0_7_39
*92 FILLER_0_7_48
*93 FILLER_0_7_57
*94 FILLER_0_8_15
*95 FILLER_0_8_23
*96 FILLER_0_8_29
*97 FILLER_0_8_3
*98 FILLER_0_8_59
*99 FILLER_0_8_67
*100 FILLER_0_8_79
*101 FILLER_0_9_13
*102 FILLER_0_9_21
*103 FILLER_0_9_26
*104 FILLER_0_9_29
*105 FILLER_0_9_3
*106 FILLER_0_9_35
*107 FILLER_0_9_39
*108 FILLER_0_9_46
*109 FILLER_0_9_52
*110 FILLER_0_9_57
*111 FILLER_0_9_61
*112 FILLER_0_9_65
*113 FILLER_0_9_73
*114 FILLER_0_9_9
*115 PHY_EDGE_ROW_0_Left_10
*116 PHY_EDGE_ROW_0_Right_0
*117 PHY_EDGE_ROW_1_Left_11
*118 PHY_EDGE_ROW_1_Right_1
*119 PHY_EDGE_ROW_2_Left_12
*120 PHY_EDGE_ROW_2_Right_2
*121 PHY_EDGE_ROW_3_Left_13
*122 PHY_EDGE_ROW_3_Right_3
*123 PHY_EDGE_ROW_4_Left_14
*124 PHY_EDGE_ROW_4_Right_4
*125 PHY_EDGE_ROW_5_Left_15
*126 PHY_EDGE_ROW_5_Right_5
*127 PHY_EDGE_ROW_6_Left_16
*128 PHY_EDGE_ROW_6_Right_6
*129 PHY_EDGE_ROW_7_Left_17
*130 PHY_EDGE_ROW_7_Right_7
*131 PHY_EDGE_ROW_8_Left_18
*132 PHY_EDGE_ROW_8_Right_8
*133 PHY_EDGE_ROW_9_Left_19
*134 PHY_EDGE_ROW_9_Right_9
*135 TAP_TAPCELL_ROW_0_20
*136 TAP_TAPCELL_ROW_0_21
*137 TAP_TAPCELL_ROW_1_22
*138 TAP_TAPCELL_ROW_2_23
*139 TAP_TAPCELL_ROW_3_24
*140 TAP_TAPCELL_ROW_4_25
*141 TAP_TAPCELL_ROW_5_26
*142 TAP_TAPCELL_ROW_6_27
*143 TAP_TAPCELL_ROW_7_28
*144 TAP_TAPCELL_ROW_8_29
*145 TAP_TAPCELL_ROW_9_30
*146 TAP_TAPCELL_ROW_9_31
*147 _08_
*148 _09_
*149 _10_
*150 _11_
*151 _12_
*152 _13_
*153 _14_
*154 _15_
*155 _16_
*156 _17_
*157 _18_
*158 clkbuf_0_clk
*159 clkbuf_1_0__f_clk
*160 clkbuf_1_1__f_clk
*161 clkload0
*162 input1
*163 input2
*164 input3
*165 input4
*166 input5
*167 input6
*168 input7
*169 output10
*170 output8
*171 output9

*PORTS
D[0] I
D[1] I
D[2] I
D[3] I
D[4] I
D[5] I
D[6] I
D[7] I
O[0] O
O[1] O
O[2] O
clk I

*D_NET *2 0.000879089
*CONN
*P D[1] I
*I *162:A I *D sky130_fd_sc_hd__clkbuf_1
*CAP
1 D[1] 0.000439544
2 *162:A 0.000439544
*RES
1 D[1] *162:A 11.37 
*END

*D_NET *3 0.000879089
*CONN
*P D[2] I
*I *163:A I *D sky130_fd_sc_hd__clkbuf_1
*CAP
1 D[2] 0.000439544
2 *163:A 0.000439544
*RES
1 D[2] *163:A 11.37 
*END

*D_NET *4 0.000988502
*CONN
*P D[3] I
*I *164:A I *D sky130_fd_sc_hd__clkbuf_1
*CAP
1 D[3] 0.000483697
2 *164:A 0.000483697
3 *164:A *29:14 2.11084e-05
*RES
1 D[3] *164:A 12.06 
*END

*D_NET *5 0.000915071
*CONN
*P D[4] I
*I *165:A I *D sky130_fd_sc_hd__buf_1
*CAP
1 D[4] 0.000432493
2 *165:A 0.000432493
3 *165:A *151:A1 1.83756e-05
4 *165:A *30:8 2.75229e-05
5 *165:A *30:12 4.18603e-06
*RES
1 D[4] *165:A 11.37 
*END

*D_NET *6 0.00110771
*CONN
*P D[5] I
*I *166:A I *D sky130_fd_sc_hd__clkbuf_1
*CAP
1 D[5] 0.000527417
2 *166:A 0.000527417
3 *166:A *31:12 3.51072e-05
4 *166:A *32:14 1.77665e-05
*RES
1 D[5] *166:A 12.96 
*END

*D_NET *7 0.000950239
*CONN
*P D[6] I
*I *167:A I *D sky130_fd_sc_hd__buf_1
*CAP
1 D[6] 0.00047512
2 *167:A 0.00047512
3 *167:A *168:A 0
*RES
1 D[6] *167:A 12.06 
*END

*D_NET *8 0.00114995
*CONN
*P D[7] I
*I *168:A I *D sky130_fd_sc_hd__buf_1
*CAP
1 D[7] 0.000574973
2 *168:A 0.000574973
3 *167:A *168:A 0
*RES
1 D[7] *168:A 13.44 
*END

*D_NET *9 0.00081412
*CONN
*P O[0] O
*I *170:X O *D sky130_fd_sc_hd__buf_2
*CAP
1 O[0] 0.00040706
2 *170:X 0.00040706
*RES
1 *170:X O[0] 10.185 
*END

*D_NET *10 0.000745566
*CONN
*P O[1] O
*I *171:X O *D sky130_fd_sc_hd__buf_2
*CAP
1 O[1] 0.000372783
2 *171:X 0.000372783
*RES
1 *171:X O[1] 10.29 
*END

*D_NET *11 0.000751264
*CONN
*P O[2] O
*I *169:X O *D sky130_fd_sc_hd__buf_2
*CAP
1 O[2] 0.000375632
2 *169:X 0.000375632
*RES
1 *169:X O[2] 9.84 
*END

*D_NET *14 0.00311258
*CONN
*P clk I
*I *158:A I *D sky130_fd_sc_hd__clkbuf_16
*CAP
1 clk 0.00143638
2 *158:A 0.00143638
3 *158:A *159:A 0.000239813
4 *158:A *24:10 0
*RES
1 clk *158:A 11.1086 
*END

*D_NET *15 0.000881386
*CONN
*I *155:D I *D sky130_fd_sc_hd__dfxtp_1
*I *149:X O *D sky130_fd_sc_hd__or4_1
*CAP
1 *155:D 0.000228284
2 *149:X 0.000228284
3 *155:D *155:CLK 0.000110059
4 *155:D *160:A 0.000219311
5 *155:D *161:A 0
6 *155:D *32:29 9.54469e-05
*RES
1 *149:X *155:D 12.4987 
*END

*D_NET *16 0.00147601
*CONN
*I *156:D I *D sky130_fd_sc_hd__dfxtp_1
*I *151:X O *D sky130_fd_sc_hd__a211o_1
*CAP
1 *156:D 0.000613633
2 *151:X 0.000613633
3 *156:D *149:D 9.50342e-06
4 *156:D *154:A2 6.28765e-05
5 *156:D *154:B1_N 0
6 *156:D *157:D 0.000151632
7 *156:D *171:A 2.47313e-05
*RES
1 *151:X *156:D 17.3738 
*END

*D_NET *17 0.00103386
*CONN
*I *157:D I *D sky130_fd_sc_hd__dfxtp_1
*I *154:Y O *D sky130_fd_sc_hd__o21bai_1
*CAP
1 *157:D 0.00036172
2 *154:Y 0.00036172
3 *157:D *157:CLK 7.26443e-05
4 *157:D *171:A 8.61483e-05
5 *156:D *157:D 0.000151632
*RES
1 *154:Y *157:D 14.4038 
*END

*D_NET *18 0.0009767
*CONN
*I *152:A1 I *D sky130_fd_sc_hd__a21oi_1
*I *147:Y O *D sky130_fd_sc_hd__inv_2
*CAP
1 *152:A1 0.00032645
2 *147:Y 0.00032645
3 *152:A1 *147:A 0.000271597
4 *152:A1 *152:B1 2.14581e-05
5 *152:A1 *153:A2 3.07438e-05
*RES
1 *147:Y *152:A1 8.18 
*END

*D_NET *19 0.000517035
*CONN
*I *151:A1 I *D sky130_fd_sc_hd__a211o_1
*I *148:Y O *D sky130_fd_sc_hd__nor2_1
*CAP
1 *151:A1 0.000224325
2 *148:Y 0.000224325
3 *151:A1 *149:D 3.05295e-05
4 *151:A1 *154:B1_N 5.53249e-06
5 *151:A1 *30:8 1.39472e-05
6 *151:A1 *30:12 0
7 *151:A1 *31:12 0
8 *151:A1 *32:29 0
9 *165:A *151:A1 1.83756e-05
*RES
1 *148:Y *151:A1 10.32 
*END

*D_NET *20 0.00121375
*CONN
*I *151:A2 I *D sky130_fd_sc_hd__a211o_1
*I *150:X O *D sky130_fd_sc_hd__or2_1
*CAP
1 *151:A2 0.000340123
2 *150:X 0.000340123
3 *151:A2 *149:D 4.82919e-05
4 *151:A2 *151:C1 0
5 *151:A2 *153:A1 2.89202e-05
6 *151:A2 *153:A2 0.00024434
7 *151:A2 *154:A2 4.82919e-05
8 *151:A2 *31:25 0.000159656
9 *151:A2 *33:20 4.00541e-06
*RES
1 *150:X *151:A2 8.96 
*END

*D_NET *21 0.00111198
*CONN
*I *153:A2 I *D sky130_fd_sc_hd__o21ba_1
*I *152:Y O *D sky130_fd_sc_hd__a21oi_1
*CAP
1 *153:A2 0.000280378
2 *152:Y 0.000280378
3 *153:A2 *147:A 1.61831e-05
4 *153:A2 *150:B 8.64421e-05
5 *153:A2 *152:B1 6.66745e-05
6 *153:A2 *153:A1 4.20889e-05
7 *153:A2 *29:14 6.47528e-05
8 *151:A2 *153:A2 0.00024434
9 *152:A1 *153:A2 3.07438e-05
*RES
1 *152:Y *153:A2 8.98625 
*END

*D_NET *22 0.000322618
*CONN
*I *154:A2 I *D sky130_fd_sc_hd__o21bai_1
*I *153:X O *D sky130_fd_sc_hd__o21ba_1
*CAP
1 *154:A2 0.000105725
2 *153:X 0.000105725
3 *151:A2 *154:A2 4.82919e-05
4 *156:D *154:A2 6.28765e-05
*RES
1 *153:X *154:A2 9.03 
*END

*D_NET *23 0.00281812
*CONN
*I *160:A I *D sky130_fd_sc_hd__clkbuf_16
*I *159:A I *D sky130_fd_sc_hd__clkbuf_16
*I *158:X O *D sky130_fd_sc_hd__clkbuf_16
*CAP
1 *160:A 0.000377879
2 *159:A 0.000777476
3 *158:X 0
4 *23:4 0.00115536
5 *159:A *24:10 4.82863e-05
6 *155:D *160:A 0.000219311
7 *158:A *159:A 0.000239813
*RES
1 *158:X *23:4 1.6 
2 *23:4 *159:A 11.14 
3 *23:4 *160:A 11.48 
*END

*D_NET *24 0.00240435
*CONN
*I *156:CLK I *D sky130_fd_sc_hd__dfxtp_1
*I *157:CLK I *D sky130_fd_sc_hd__dfxtp_1
*I *159:X O *D sky130_fd_sc_hd__clkbuf_16
*CAP
1 *156:CLK 3.5663e-05
2 *157:CLK 0.000498054
3 *159:X 0.000593643
4 *24:10 0.00112736
5 *157:CLK *170:A 2.86975e-05
6 *157:D *157:CLK 7.26443e-05
7 *158:A *24:10 0
8 *159:A *24:10 4.82863e-05
*RES
1 *159:X *24:10 10.515 
2 *24:10 *157:CLK 11.37 
3 *24:10 *156:CLK 4.05 
*END

*D_NET *25 0.00156599
*CONN
*I *161:A I *D sky130_fd_sc_hd__clkbuf_4
*I *155:CLK I *D sky130_fd_sc_hd__dfxtp_1
*I *160:X O *D sky130_fd_sc_hd__clkbuf_16
*CAP
1 *161:A 7.1009e-05
2 *155:CLK 0.000313528
3 *160:X 0.00034343
4 *25:8 0.000727966
5 *161:A *32:29 0
6 *155:D *155:CLK 0.000110059
7 *155:D *161:A 0
*RES
1 *160:X *25:8 7.155 
2 *25:8 *155:CLK 8.685 
3 *25:8 *161:A 4.725 
*END

*D_NET *26 0.00101105
*CONN
*I *152:A2 I *D sky130_fd_sc_hd__a21oi_1
*I *162:X O *D sky130_fd_sc_hd__clkbuf_1
*CAP
1 *152:A2 0.000505525
2 *162:X 0.000505525
3 *152:A2 *150:B 0
4 *152:A2 *28:10 0
*RES
1 *162:X *152:A2 13.08 
*END

*D_NET *27 0.00163434
*CONN
*I *169:A I *D sky130_fd_sc_hd__buf_2
*I *155:Q O *D sky130_fd_sc_hd__dfxtp_1
*CAP
1 *169:A 0.000817169
2 *155:Q 0.000817169
*RES
1 *155:Q *169:A 20.175 
*END

*D_NET *28 0.00133735
*CONN
*I *147:A I *D sky130_fd_sc_hd__inv_2
*I *150:B I *D sky130_fd_sc_hd__or2_1
*I *163:X O *D sky130_fd_sc_hd__clkbuf_1
*CAP
1 *147:A 8.20412e-05
2 *150:B 8.16543e-05
3 *163:X 0.00019264
4 *28:10 0.000356336
5 *147:A *152:B1 9.28568e-05
6 *147:A *153:A1 2.34602e-05
7 *147:A *29:14 4.88478e-05
8 *150:B *152:B1 8.52883e-05
9 *152:A1 *147:A 0.000271597
10 *152:A2 *150:B 0
11 *152:A2 *28:10 0
12 *153:A2 *147:A 1.61831e-05
13 *153:A2 *150:B 8.64421e-05
*RES
1 *163:X *28:10 5.865 
2 *28:10 *150:B 5.265 
3 *28:10 *147:A 6.735 
*END

*D_NET *29 0.000938003
*CONN
*I *150:A I *D sky130_fd_sc_hd__or2_1
*I *152:B1 I *D sky130_fd_sc_hd__a21oi_1
*I *164:X O *D sky130_fd_sc_hd__clkbuf_1
*CAP
1 *150:A 0
2 *152:B1 4.19764e-05
3 *164:X 0.000226532
4 *29:14 0.000268508
5 *29:14 *148:A 0
6 *147:A *152:B1 9.28568e-05
7 *147:A *29:14 4.88478e-05
8 *150:B *152:B1 8.52883e-05
9 *152:A1 *152:B1 2.14581e-05
10 *153:A2 *152:B1 6.66745e-05
11 *153:A2 *29:14 6.47528e-05
12 *164:A *29:14 2.11084e-05
*RES
1 *164:X *29:14 8.825 
2 *29:14 *152:B1 3.43 
3 *29:14 *150:A 1.6 
*END

*D_NET *30 0.00210942
*CONN
*I *148:B I *D sky130_fd_sc_hd__nor2_1
*I *149:D I *D sky130_fd_sc_hd__or4_1
*I *153:A1 I *D sky130_fd_sc_hd__o21ba_1
*I *165:X O *D sky130_fd_sc_hd__buf_1
*CAP
1 *148:B 0
2 *149:D 0.0003435
3 *153:A1 0.000170289
4 *165:X 0.000226721
5 *30:12 0.000606247
6 *30:8 0.000319179
7 *149:D *151:C1 1.85222e-05
8 *149:D *154:B1_N 0
9 *149:D *31:25 3.26924e-05
10 *149:D *33:20 2.85391e-05
11 *153:A1 *31:25 5.05521e-05
12 *30:12 *148:A 8.47289e-05
13 *147:A *153:A1 2.34602e-05
14 *151:A1 *149:D 3.05295e-05
15 *151:A1 *30:8 1.39472e-05
16 *151:A1 *30:12 0
17 *151:A2 *149:D 4.82919e-05
18 *151:A2 *153:A1 2.89202e-05
19 *153:A2 *153:A1 4.20889e-05
20 *156:D *149:D 9.50342e-06
21 *165:A *30:8 2.75229e-05
22 *165:A *30:12 4.18603e-06
*RES
1 *165:X *30:8 4.39 
2 *30:8 *30:12 3.89 
3 *30:12 *153:A1 6.735 
4 *30:12 *149:D 8.18625 
5 *30:8 *148:B 1.6 
*END

*D_NET *31 0.00199362
*CONN
*I *153:B1_N I *D sky130_fd_sc_hd__o21ba_1
*I *148:A I *D sky130_fd_sc_hd__nor2_1
*I *149:C I *D sky130_fd_sc_hd__or4_1
*I *166:X O *D sky130_fd_sc_hd__clkbuf_1
*CAP
1 *153:B1_N 0
2 *148:A 0.000141352
3 *149:C 0
4 *166:X 0.000319404
5 *31:25 0.000404578
6 *31:12 0.00058263
7 *31:12 *32:29 2.78196e-05
8 *31:25 *33:20 0.000155096
9 *149:D *31:25 3.26924e-05
10 *151:A1 *31:12 0
11 *151:A2 *31:25 0.000159656
12 *153:A1 *31:25 5.05521e-05
13 *166:A *31:12 3.51072e-05
14 *29:14 *148:A 0
15 *30:12 *148:A 8.47289e-05
*RES
1 *166:X *31:12 9.5 
2 *31:12 *149:C 1.6 
3 *31:12 *31:25 5.325 
4 *31:25 *148:A 8.1275 
5 *31:25 *153:B1_N 1.6 
*END

*D_NET *32 0.0030207
*CONN
*I *151:C1 I *D sky130_fd_sc_hd__a211o_1
*I *154:A1 I *D sky130_fd_sc_hd__o21bai_1
*I *149:B I *D sky130_fd_sc_hd__or4_1
*I *167:X O *D sky130_fd_sc_hd__buf_1
*CAP
1 *151:C1 7.4664e-05
2 *154:A1 0.000264301
3 *149:B 3.83948e-05
4 *167:X 0.000613296
5 *32:29 0.000575937
6 *32:14 0.000888664
7 *149:B *33:12 1.83756e-05
8 *149:B *33:20 4.9253e-06
9 *151:C1 *154:B1_N 0.000112284
10 *151:C1 *33:20 1.57061e-05
11 *154:A1 *154:B1_N 0.000162409
12 *32:14 *33:12 9.21884e-05
13 *149:D *151:C1 1.85222e-05
14 *151:A1 *32:29 0
15 *151:A2 *151:C1 0
16 *155:D *32:29 9.54469e-05
17 *161:A *32:29 0
18 *166:A *32:14 1.77665e-05
19 *31:12 *32:29 2.78196e-05
*RES
1 *167:X *32:14 12.89 
2 *32:14 *149:B 2.05 
3 *32:14 *32:29 8.23 
4 *32:29 *154:A1 5.515 
5 *32:29 *151:C1 7.4 
*END

*D_NET *33 0.00229867
*CONN
*I *149:A I *D sky130_fd_sc_hd__or4_1
*I *151:B1 I *D sky130_fd_sc_hd__a211o_1
*I *154:B1_N I *D sky130_fd_sc_hd__o21bai_1
*I *168:X O *D sky130_fd_sc_hd__buf_1
*CAP
1 *149:A 0
2 *151:B1 0
3 *154:B1_N 0.00016656
4 *168:X 0.000588705
5 *33:20 0.000261098
6 *33:12 0.000683242
7 *149:B *33:12 1.83756e-05
8 *149:B *33:20 4.9253e-06
9 *149:D *154:B1_N 0
10 *149:D *33:20 2.85391e-05
11 *151:A1 *154:B1_N 5.53249e-06
12 *151:A2 *33:20 4.00541e-06
13 *151:C1 *154:B1_N 0.000112284
14 *151:C1 *33:20 1.57061e-05
15 *154:A1 *154:B1_N 0.000162409
16 *156:D *154:B1_N 0
17 *31:25 *33:20 0.000155096
18 *32:14 *33:12 9.21884e-05
*RES
1 *168:X *33:12 14.93 
2 *33:12 *33:20 2.655 
3 *33:20 *154:B1_N 8.975 
4 *33:20 *151:B1 1.6 
5 *33:12 *149:A 1.6 
*END

*D_NET *34 0.00209376
*CONN
*I *170:A I *D sky130_fd_sc_hd__buf_2
*I *157:Q O *D sky130_fd_sc_hd__dfxtp_1
*CAP
1 *170:A 0.00103253
2 *157:Q 0.00103253
3 *157:CLK *170:A 2.86975e-05
*RES
1 *157:Q *170:A 21.72 
*END

*D_NET *35 0.00136901
*CONN
*I *171:A I *D sky130_fd_sc_hd__buf_2
*I *156:Q O *D sky130_fd_sc_hd__dfxtp_1
*CAP
1 *171:A 0.000629067
2 *156:Q 0.000629067
3 *156:D *171:A 2.47313e-05
4 *157:D *171:A 8.61483e-05
*RES
1 *156:Q *171:A 17.79 
*END
